Version 4
SHEET 1 880 680
WIRE -32 64 -96 64
WIRE -96 96 -96 64
WIRE 16 96 -16 96
WIRE 128 96 80 96
WIRE 432 112 368 112
WIRE -32 128 -32 64
WIRE 128 128 -32 128
WIRE 432 176 432 112
WIRE 464 176 432 176
WIRE -16 208 -16 96
WIRE 128 208 -16 208
WIRE 432 224 432 176
WIRE 432 224 368 224
FLAG 128 240 0
FLAG -16 288 0
FLAG -96 176 0
FLAG 464 240 0
SYMBOL transmissionGate 240 112 R0
SYMATTR InstName X1
SYMBOL transmissionGate 240 224 R0
SYMATTR InstName X2
SYMBOL voltage -96 80 R0
WINDOW 123 0 0 Left 0
WINDOW 39 0 0 Left 0
SYMATTR InstName V1
SYMATTR Value PULSE(0 1.8V 0 0 0 1s 2s 6)
SYMBOL voltage -16 192 R0
WINDOW 123 0 0 Left 0
WINDOW 39 0 0 Left 0
SYMATTR InstName V2
SYMATTR Value PULSE(0 1.8V 0 0 0 2s 4s 3)
SYMBOL cap 448 176 R0
SYMATTR InstName C1
SYMATTR Value 10f
SYMBOL Digital\\inv 16 32 R0
SYMATTR InstName A1
TEXT -130 312 Left 2 !.tran 12s
