Version 4
SHEET 1 880 680
WIRE 64 112 -304 112
WIRE 64 144 -208 144
WIRE 320 144 208 144
WIRE -304 160 -304 112
WIRE -208 160 -208 144
WIRE 320 160 320 144
WIRE 336 160 320 160
WIRE 64 176 48 176
WIRE 48 192 48 176
WIRE 48 192 -16 192
WIRE 336 192 272 192
WIRE 576 192 480 192
WIRE 336 224 304 224
WIRE 64 256 16 256
WIRE 48 272 32 272
WIRE 48 288 48 272
WIRE 64 288 48 288
WIRE 272 288 272 192
WIRE 272 288 208 288
WIRE 16 304 16 256
WIRE 16 304 -304 304
WIRE -16 320 -16 192
WIRE 64 320 -16 320
WIRE 32 336 32 272
WIRE 32 336 -192 336
WIRE -304 368 -304 304
WIRE -192 368 -192 336
WIRE -16 368 -16 320
WIRE 304 368 304 224
FLAG -304 240 0
FLAG -208 240 0
FLAG -304 448 0
FLAG -192 448 0
FLAG -16 448 0
FLAG 304 448 0
SYMBOL mux2x1 128 144 R0
SYMATTR InstName X1
SYMBOL mux2x1 128 288 R0
SYMATTR InstName X2
SYMBOL mux2x1 400 192 R0
SYMATTR InstName X3
SYMBOL voltage -304 144 R0
WINDOW 123 0 0 Left 0
WINDOW 39 0 0 Left 0
SYMATTR InstName V1
SYMATTR Value PULSE(0 1.8V 0 0 0 1m 2m)
SYMBOL voltage -208 144 R0
WINDOW 123 0 0 Left 0
WINDOW 39 0 0 Left 0
SYMATTR InstName V2
SYMATTR Value PULSE(0 1.8V 0 0 0 2m 4m)
SYMBOL voltage -304 352 R0
WINDOW 123 0 0 Left 0
WINDOW 39 0 0 Left 0
SYMATTR InstName V3
SYMATTR Value PULSE(1.8V 0 0 0 0 1m 2m)
SYMBOL voltage -192 352 R0
WINDOW 123 0 0 Left 0
WINDOW 39 0 0 Left 0
SYMATTR InstName V4
SYMATTR Value PULSE(1.8V 0 0 0 0 2m 4m)
SYMBOL voltage 304 352 R0
WINDOW 123 0 0 Left 0
WINDOW 39 0 0 Left 0
SYMATTR InstName V5
SYMATTR Value PULSE(0 1.8V 0 0 0 1m 2m)
SYMBOL voltage -16 352 R0
WINDOW 123 0 0 Left 0
WINDOW 39 0 0 Left 0
SYMATTR InstName V6
SYMATTR Value PULSE(0 1.8V 0 0 0 0.5m 1m)
TEXT 128 24 Left 2 !.tran 10m
