Version 4
SHEET 1 1028 740
WIRE 16 96 -608 96
WIRE 448 128 304 128
WIRE 16 160 -464 160
WIRE 448 240 448 128
WIRE 512 240 448 240
WIRE 160 256 160 176
WIRE 160 256 -64 256
WIRE 912 272 800 272
WIRE 1024 272 912 272
WIRE 512 304 448 304
WIRE 656 352 656 320
WIRE 656 352 640 352
WIRE 16 368 -320 368
WIRE 448 400 448 304
WIRE 448 400 304 400
WIRE 16 432 -176 432
WIRE -608 464 -608 96
WIRE -464 464 -464 160
WIRE 640 528 640 352
WIRE -64 592 -64 256
WIRE 160 592 160 448
WIRE 160 592 -64 592
WIRE -64 624 -64 592
WIRE -320 640 -320 368
WIRE -176 640 -176 432
FLAG -608 544 0
FLAG -464 544 0
FLAG -320 720 0
FLAG -176 720 0
FLAG -64 704 0
FLAG 640 608 0
FLAG 912 336 0
SYMBOL mux21 160 128 R0
SYMATTR InstName X1
SYMBOL mux21 160 400 R0
SYMATTR InstName X2
SYMBOL mux21 656 272 R0
SYMATTR InstName X3
SYMBOL voltage -608 448 R0
WINDOW 123 0 0 Left 0
WINDOW 39 0 0 Left 0
SYMATTR InstName V1
SYMATTR Value PULSE(0 1.8 0 0 0 1m 2m)
SYMBOL voltage -464 448 R0
WINDOW 123 0 0 Left 0
WINDOW 39 0 0 Left 0
SYMATTR InstName V2
SYMATTR Value PULSE(0 1.8 0 0 0 2m 4m)
SYMBOL voltage -320 624 R0
WINDOW 123 0 0 Left 0
WINDOW 39 0 0 Left 0
SYMATTR InstName V3
SYMATTR Value PULSE(1.8 0 0 0 0 1m 2m)
SYMBOL voltage -176 624 R0
WINDOW 123 0 0 Left 0
WINDOW 39 0 0 Left 0
SYMATTR InstName V4
SYMATTR Value PULSE(1.8 0 0 0 0 2m 4m)
SYMBOL voltage 640 512 R0
WINDOW 123 0 0 Left 0
WINDOW 39 0 0 Left 0
SYMATTR InstName V5
SYMATTR Value PULSE(0 1.8 0 0 0 1m 2m)
SYMBOL voltage -64 608 R0
WINDOW 123 0 0 Left 0
WINDOW 39 0 0 Left 0
SYMATTR InstName V6
SYMATTR Value PULSE(0 1.8 0 0 0 0.5m 1m)
SYMBOL cap 896 272 R0
SYMATTR InstName C1
SYMATTR Value 10ff
TEXT -160 -8 Left 2 !.tran 10m
