Version 4
SHEET 1 880 680
WIRE 32 96 -192 96
WIRE 432 112 272 112
WIRE 32 128 -400 128
WIRE 432 208 432 112
WIRE 560 208 432 208
WIRE 640 208 560 208
WIRE -192 240 -192 96
WIRE -144 240 -192 240
WIRE 560 240 560 208
WIRE -400 272 -400 128
WIRE -288 272 -400 272
WIRE -128 272 -224 272
WIRE -80 288 -80 240
WIRE 32 288 -80 288
WIRE -400 304 -400 272
WIRE 432 304 432 208
WIRE 432 304 272 304
WIRE -128 320 -128 272
WIRE 32 320 -128 320
WIRE 560 320 560 304
WIRE -192 400 -192 240
WIRE -400 416 -400 384
FLAG -400 416 0
FLAG -192 480 0
FLAG 560 320 0
SYMBOL transmissionGate 144 112 R0
SYMATTR InstName X1
SYMBOL transmissionGate 144 304 R0
SYMATTR InstName X2
SYMBOL voltage -400 288 R0
WINDOW 123 0 0 Left 0
WINDOW 39 0 0 Left 0
SYMATTR InstName V1
SYMATTR Value PULSE(0 1.8 0 1p 1p 5n 10n)
SYMBOL Digital\\inv -288 208 R0
SYMATTR InstName A1
SYMBOL voltage -192 384 R0
WINDOW 123 0 0 Left 0
WINDOW 39 0 0 Left 0
SYMATTR InstName V2
SYMATTR Value PULSE(0 1.8 0 1p 1p 5n 15n)
SYMBOL Digital\\inv -144 176 R0
SYMATTR InstName A2
SYMBOL cap 544 240 R0
SYMATTR InstName C1
SYMATTR Value 10f
TEXT -144 56 Left 2 !.tran 100n
